systems/win/case39.psse
0,   100.00, 31, 0, 1, 60.00     / PSS(R)E 31 RAW created by rawd31  MON, JUL 15 2013  15:06
NEW ENGLAND TEST SYSTEM - LOAD FLOW

     1,'BUS1        ', 345.0000,1,   1,   1,   1,1.04814,  -9.4266
     2,'BUS2        ', 345.0000,1,   1,   1,   1,1.05050,  -6.8853
     3,'BUS3        ', 345.0000,1,   1,   1,   1,1.03411,  -9.7285
     4,'BUS4        ', 345.0000,1,   1,   1,   1,1.01161, -10.5291
     5,'BUS5        ', 345.0000,1,   1,   1,   1,1.01647,  -9.3764
     6,'BUS6        ', 345.0000,1,   1,   1,   1,1.01725,  -8.6815
     7,'BUS7        ', 345.0000,1,   1,   1,   1,1.00668, -10.8417
     8,'BUS8        ', 345.0000,1,   1,   1,   1,1.00570, -11.3376
     9,'BUS9        ', 345.0000,1,   1,   1,   1,1.03220, -11.1509
    10,'BUS10       ', 345.0000,1,   1,   1,   1,1.02346,  -6.3140
    11,'BUS11       ', 345.0000,1,   1,   1,   1,1.02013,  -7.1235
    12,'BUS12       ', 345.0000,1,   1,   1,   1,1.00721,  -7.1351
    13,'BUS13       ', 345.0000,1,   1,   1,   1,1.02066,  -7.0184
    14,'BUS14       ', 345.0000,1,   1,   1,   1,1.01809,  -8.6628
    15,'BUS15       ', 345.0000,1,   1,   1,   1,1.01937,  -9.0593
    16,'BUS16       ', 345.0000,1,   1,   1,   1,1.03457,  -7.6557
    17,'BUS17       ', 345.0000,1,   1,   1,   1,1.03648,  -8.6478
    18,'BUS18       ', 345.0000,1,   1,   1,   1,1.03427,  -9.4855
    19,'BUS19       ', 345.0000,1,   1,   1,   1,1.05086,  -3.0389
    20,'BUS20       ', 110.0000,1,   1,   1,   1,0.99142,  -4.4475
    21,'BUS21       ', 345.0000,1,   1,   1,   1,1.03373,  -5.2569
    22,'BUS22       ', 345.0000,1,   1,   1,   1,1.05085,  -0.8181
    23,'BUS23       ', 345.0000,1,   1,   1,   1,1.04588,  -1.0160
    24,'BUS24       ', 345.0000,1,   1,   1,   1,1.03986,  -7.5361
    25,'BUS25       ', 345.0000,1,   1,   1,   1,1.05869,  -5.5136
    26,'BUS26       ', 345.0000,1,   1,   1,   1,1.05359,  -6.7740
    27,'BUS27       ', 345.0000,1,   1,   1,   1,1.03990,  -8.7842
    28,'BUS28       ', 345.0000,1,   1,   1,   1,1.05091,  -3.2666
    29,'BUS29       ', 345.0000,2,   1,   1,   1,1.05048,  -0.5097
    30,'BUS30       ',  13.8000,2,   1,   1,   1,1.04750,  -4.4696
    31,'BUS31       ',  13.8000,3,   1,   1,   1,0.98200,   0.0000
    32,'BUS32       ',  13.8000,2,   1,   1,   1,0.98310,   1.6325
    33,'BUS33       ',  13.8000,2,   1,   1,   1,0.99720,   2.1762
    34,'BUS34       ',  13.8000,2,   1,   1,   1,1.01230,   0.7416
    35,'BUS35       ',  13.8000,2,   1,   1,   1,1.04930,   4.1386
    36,'BUS36       ',  13.8000,2,   1,   1,   1,1.06350,   6.8297
    37,'BUS37       ',  13.8000,2,   1,   1,   1,1.02780,   1.2652
    38,'BUS38       ',  13.8000,2,   1,   1,   1,1.02650,   6.5515
    39,'BUS39       ', 345.0000,2,   1,   1,   1,1.03000, -10.9566
0 /End of Bus data, Begin Load data
     3,'BL',1,   1,   1,   322.000,     2.400,     0.000,     0.000,     0.000,     0.000,   1
     4,'BL',1,   1,   1,   500.000,   184.000,     0.000,     0.000,     0.000,     0.000,   1
     7,'BL',1,   1,   1,   233.800,    84.000,     0.000,     0.000,     0.000,     0.000,   1
     8,'BL',1,   1,   1,   522.000,   176.000,     0.000,     0.000,     0.000,     0.000,   1
    12,'BL',1,   1,   1,     8.500,    88.000,     0.000,     0.000,     0.000,     0.000,   1
    15,'BL',1,   1,   1,   320.000,   153.000,     0.000,     0.000,     0.000,     0.000,   1
    16,'BL',1,   1,   1,   329.400,    32.300,     0.000,     0.000,     0.000,     0.000,   1
    18,'BL',1,   1,   1,   158.000,    30.000,     0.000,     0.000,     0.000,     0.000,   1
    20,'BL',1,   1,   1,   680.000,   103.000,     0.000,     0.000,     0.000,     0.000,   1
    21,'BL',1,   1,   1,   274.000,   115.000,     0.000,     0.000,     0.000,     0.000,   1
    23,'BL',1,   1,   1,   247.500,    84.600,     0.000,     0.000,     0.000,     0.000,   1
    24,'BL',1,   1,   1,   308.600,   -92.200,     0.000,     0.000,     0.000,     0.000,   1
    25,'BL',1,   1,   1,   224.000,    47.200,     0.000,     0.000,     0.000,     0.000,   1
    26,'BL',1,   1,   1,   139.000,    17.000,     0.000,     0.000,     0.000,     0.000,   1
    27,'BL',1,   1,   1,   281.000,    75.500,     0.000,     0.000,     0.000,     0.000,   1
    28,'BL',1,   1,   1,   206.000,    27.600,     0.000,     0.000,     0.000,     0.000,   1
    29,'BL',1,   1,   1,   283.500,   126.900,     0.000,     0.000,     0.000,     0.000,   1
    31,'BL',1,   1,   1,     9.200,     4.600,     0.000,     0.000,     0.000,     0.000,   1
    39,'BL',1,   1,   1,  1104.000,   250.000,     0.000,     0.000,     0.000,     0.000,   1
0 /End of Load data, Begin Fixed shunt data
0 /End of Fixed shunt data, Begin Generator data
    29,'1 ',     0.000,    99.995,  9999.000, -9999.000,1.05048,     0,   100.000, 0.00000E+0, 2.00000E-1, 0.00000E+0, 0.00000E+0,0.00000,1,  100.0,  9999.000, -9999.000,   1,1.0000
    30,'1 ',   250.000,   136.198,  9999.000, -9999.000,1.04750,     0,   100.000, 0.00000E+0, 3.10000E-2, 0.00000E+0, 0.00000E+0,0.00000,1,  100.0,  9999.000, -9999.000,   1,1.0000
    31,'1 ',   572.871,   170.339,  9999.000, -9999.000,0.98200,     0,   100.000, 0.00000E+0, 7.00000E-2, 0.00000E+0, 0.00000E+0,0.00000,1,  100.0,  9999.000, -9999.000,   1,1.0000
    32,'1 ',   650.000,   175.896,  9999.000, -9999.000,0.98310,     0,   100.000, 0.00000E+0, 5.30000E-2, 0.00000E+0, 0.00000E+0,0.00000,1,  100.0,  9999.000, -9999.000,   1,1.0000
    33,'1 ',   632.000,   103.344,  9999.000, -9999.000,0.99720,     0,   100.000, 0.00000E+0, 4.40000E-2, 0.00000E+0, 0.00000E+0,0.00000,1,  100.0,  9999.000, -9999.000,   1,1.0000
    34,'1 ',   508.000,   164.395,  9999.000, -9999.000,1.01230,     0,   100.000, 0.00000E+0, 1.32000E-1, 0.00000E+0, 0.00000E+0,0.00000,1,  100.0,  9999.000, -9999.000,   1,1.0000
    35,'1 ',   650.000,   204.835,  9999.000, -9999.000,1.04930,     0,   100.000, 0.00000E+0, 5.00000E-2, 0.00000E+0, 0.00000E+0,0.00000,1,  100.0,  9999.000, -9999.000,   1,1.0000
    36,'1 ',   560.000,    96.878,  9999.000, -9999.000,1.06350,     0,   100.000, 0.00000E+0, 4.90000E-2, 0.00000E+0, 0.00000E+0,0.00000,1,  100.0,  9999.000, -9999.000,   1,1.0000
    37,'1 ',   540.000,    -4.435,  9999.000, -9999.000,1.02780,     0,   100.000, 0.00000E+0, 5.70000E-2, 0.00000E+0, 0.00000E+0,0.00000,1,  100.0,  9999.000, -9999.000,   1,1.0000
    38,'1 ',   830.000,    19.386,  9999.000, -9999.000,1.02650,     0,   100.000, 0.00000E+0, 5.70000E-2, 0.00000E+0, 0.00000E+0,0.00000,1,  100.0,  9999.000, -9999.000,   1,1.0000
    39,'1 ',  1000.000,    68.450,  9999.000, -9999.000,1.03000,     0,   100.000, 0.00000E+0, 6.00000E-3, 0.00000E+0, 0.00000E+0,0.00000,1,  100.0,  9999.000, -9999.000,   1,1.0000
0 /End of Generator data, Begin Branch data
     1,      2,'1 ', 3.50000E-3, 4.11000E-2,   0.69870,    0.00,    0.00,    0.00,  0.00000,  0.00000,  0.00000,  0.00000,1,1,   0.00,   1,1.0000
     1,     39,'1 ', 2.00000E-3, 5.00000E-2,   0.37500,    0.00,    0.00,    0.00,  0.00000,  0.00000,  0.00000,  0.00000,1,1,   0.00,   1,1.0000
     1,     39,'2 ', 2.00000E-3, 5.00000E-2,   0.37500,    0.00,    0.00,    0.00,  0.00000,  0.00000,  0.00000,  0.00000,1,1,   0.00,   1,1.0000
     2,      3,'1 ', 1.30000E-3, 1.51000E-2,   0.25720,    0.00,    0.00,    0.00,  0.00000,  0.00000,  0.00000,  0.00000,1,1,   0.00,   1,1.0000
     2,     25,'1 ', 7.00000E-3, 8.60000E-3,   0.14600,    0.00,    0.00,    0.00,  0.00000,  0.00000,  0.00000,  0.00000,1,1,   0.00,   1,1.0000
     3,      4,'1 ', 1.30000E-3, 2.13000E-2,   0.22140,    0.00,    0.00,    0.00,  0.00000,  0.00000,  0.00000,  0.00000,1,1,   0.00,   1,1.0000
     3,     18,'1 ', 1.10000E-3, 1.33000E-2,   0.21380,    0.00,    0.00,    0.00,  0.00000,  0.00000,  0.00000,  0.00000,1,1,   0.00,   1,1.0000
     4,      5,'1 ', 8.00000E-4, 1.28000E-2,   0.13420,    0.00,    0.00,    0.00,  0.00000,  0.00000,  0.00000,  1.00000,1,1,   0.00,   1,1.0000
     4,     14,'1 ', 8.00000E-4, 1.29000E-2,   0.13820,    0.00,    0.00,    0.00,  0.00000,  0.00000,  0.00000,  0.00000,1,1,   0.00,   1,1.0000
     5,      6,'1 ', 2.00000E-4, 2.60000E-3,   0.04340,    0.00,    0.00,    0.00,  0.00000,  0.00000,  0.00000,  0.00000,1,1,   0.00,   1,1.0000
     5,      8,'1 ', 8.00000E-4, 1.12000E-2,   0.14760,    0.00,    0.00,    0.00,  0.00000,  0.00000,  0.00000,  0.00000,1,1,   0.00,   1,1.0000
     6,      7,'1 ', 6.00000E-4, 9.20000E-3,   0.11300,    0.00,    0.00,    0.00,  0.00000,  0.00000,  0.00000,  0.00000,1,1,   0.00,   1,1.0000
     6,     11,'1 ', 7.00000E-4, 8.20000E-3,   0.13890,    0.00,    0.00,    0.00,  0.00000,  0.00000,  0.00000,  0.00000,1,1,   0.00,   1,1.0000
     7,      8,'1 ', 4.00000E-4, 4.60000E-3,   0.07800,    0.00,    0.00,    0.00,  0.00000,  0.00000,  0.00000,  0.00000,1,1,   0.00,   1,1.0000
     8,      9,'1 ', 2.30000E-3, 3.63000E-2,   0.38040,    0.00,    0.00,    0.00,  0.00000,  0.00000,  0.00000,  0.00000,1,1,   0.00,   1,1.0000
     9,     39,'1 ', 1.00000E-3, 2.50000E-2,   1.20000,    0.00,    0.00,    0.00,  0.00000,  0.00000,  0.00000,  0.00000,1,1,   0.00,   1,1.0000
    10,     11,'1 ', 4.00000E-4, 4.30000E-3,   0.07290,    0.00,    0.00,    0.00,  0.00000,  0.00000,  0.00000,  0.00000,1,1,   0.00,   1,1.0000
    10,     13,'1 ', 4.00000E-4, 4.30000E-3,   0.07290,    0.00,    0.00,    0.00,  0.00000,  0.00000,  0.00000,  0.00000,1,1,   0.00,   1,1.0000
    13,     14,'1 ', 9.00000E-4, 1.01000E-2,   0.17230,    0.00,    0.00,    0.00,  0.00000,  0.00000,  0.00000,  0.00000,1,1,   0.00,   1,1.0000
    14,     15,'1 ', 1.80000E-3, 2.17000E-2,   0.36600,    0.00,    0.00,    0.00,  0.00000,  0.00000,  0.00000,  0.00000,1,1,   0.00,   1,1.0000
    15,     16,'1 ', 9.00000E-4, 9.40000E-3,   0.17100,    0.00,    0.00,    0.00,  0.00000,  0.00000,  0.00000,  0.00000,1,1,   0.00,   1,1.0000
    16,     17,'1 ', 7.00000E-4, 8.90000E-3,   0.13420,    0.00,    0.00,    0.00,  0.00000,  0.00000,  0.00000,  0.00000,1,1,   0.00,   1,1.0000
    16,     19,'1 ', 1.60000E-3, 1.95000E-2,   0.30400,    0.00,    0.00,    0.00,  0.00000,  0.00000,  0.00000,  0.00000,1,1,   0.00,   1,1.0000
    16,     21,'1 ', 8.00000E-4, 1.35000E-2,   0.25480,    0.00,    0.00,    0.00,  0.00000,  0.00000,  0.00000,  0.00000,1,1,   0.00,   1,1.0000
    16,     24,'1 ', 3.00000E-4, 5.90000E-3,   0.06800,    0.00,    0.00,    0.00,  0.00000,  0.00000,  0.00000,  0.00000,1,1,   0.00,   1,1.0000
    17,     18,'1 ', 7.00000E-4, 8.20000E-3,   0.13190,    0.00,    0.00,    0.00,  0.00000,  0.00000,  0.00000,  0.00000,1,1,   0.00,   1,1.0000
    17,     27,'1 ', 1.30000E-3, 1.73000E-2,   0.32160,    0.00,    0.00,    0.00,  0.00000,  0.00000,  0.00000,  0.00000,1,1,   0.00,   1,1.0000
    21,     22,'1 ', 8.00000E-4, 1.40000E-2,   0.25650,    0.00,    0.00,    0.00,  0.00000,  0.00000,  0.00000,  0.00000,1,1,   0.00,   1,1.0000
    22,     23,'1 ', 6.00000E-4, 9.60000E-3,   0.18460,    0.00,    0.00,    0.00,  0.00000,  0.00000,  0.00000,  0.00000,1,1,   0.00,   1,1.0000
    23,     24,'1 ', 2.20000E-3, 3.50000E-2,   0.36100,    0.00,    0.00,    0.00,  0.00000,  0.00000,  0.00000,  0.00000,1,1,   0.00,   1,1.0000
    25,     26,'1 ', 3.20000E-3, 3.23000E-2,   0.51300,    0.00,    0.00,    0.00,  0.00000,  0.00000,  0.00000,  0.00000,1,1,   0.00,   1,1.0000
    26,     27,'1 ', 1.40000E-3, 1.47000E-2,   0.23960,    0.00,    0.00,    0.00,  0.00000,  0.00000,  0.00000,  0.00000,1,1,   0.00,   1,1.0000
    26,     28,'1 ', 4.30000E-3, 4.74000E-2,   0.78020,    0.00,    0.00,    0.00,  0.00000,  0.00000,  0.00000,  0.00000,1,1,   0.00,   1,1.0000
    26,     29,'1 ', 5.70000E-3, 6.25000E-2,   1.02900,    0.00,    0.00,    0.00,  0.00000,  0.00000,  0.00000,  0.00000,1,1,   0.00,   1,1.0000
    28,     29,'1 ', 1.40000E-3, 1.51000E-2,   0.24900,    0.00,    0.00,    0.00,  0.00000,  0.00000,  0.00000,  0.00000,1,1,   0.00,   1,1.0000
0 /End of Branch data, Begin Transformer data
     2,    30,     0,'1 ',1,1,1, 0.00000E+0, 0.00000E+0,2,'            ',1,   1,1.0000
 0.00000E+0, 1.81000E-2,   100.00
1.02500,   0.000,   0.000,     0.00,     0.00,     0.00, 0,      0, 1.10000, 0.90000, 1.10000, 0.90000, 999, 0, 0.00000, 0.00000
1.00000,   0.000
     6,    31,     0,'1 ',1,1,1, 0.00000E+0, 0.00000E+0,2,'            ',1,   1,1.0000
 0.00000E+0, 5.00000E-2,   100.00
1.07000,   0.000,   0.000,     0.00,     0.00,     0.00, 0,      0, 1.10000, 0.90000, 1.10000, 0.90000, 999, 0, 0.00000, 0.00000
1.00000,   0.000
     6,    31,     0,'2 ',1,1,1, 0.00000E+0, 0.00000E+0,2,'            ',1,   1,1.0000
 0.00000E+0, 5.00000E-2,   100.00
1.07000,   0.000,   0.000,     0.00,     0.00,     0.00, 0,      0, 1.10000, 0.90000, 1.10000, 0.90000, 999, 0, 0.00000, 0.00000
1.00000,   0.000
    10,    32,     0,'1 ',1,1,1, 0.00000E+0, 0.00000E+0,2,'            ',1,   1,1.0000
 0.00000E+0, 2.00000E-2,   100.00
1.07000,   0.000,   0.000,     0.00,     0.00,     0.00, 0,      0, 1.10000, 0.90000, 1.10000, 0.90000, 999, 0, 0.00000, 0.00000
1.00000,   0.000
    12,    11,     0,'1 ',1,1,1, 0.00000E+0, 0.00000E+0,2,'            ',1,   1,1.0000
 1.60000E-3, 4.35000E-2,   100.00
1.00600,   0.000,   0.000,     0.00,     0.00,     0.00, 0,      0, 1.10000, 0.90000, 1.10000, 0.90000, 999, 0, 0.00000, 0.00000
1.00000,   0.000
    12,    13,     0,'1 ',1,1,1, 0.00000E+0, 0.00000E+0,2,'            ',1,   1,1.0000
 1.60000E-3, 4.35000E-2,   100.00
1.00600,   0.000,   0.000,     0.00,     0.00,     0.00, 0,      0, 1.10000, 0.90000, 1.10000, 0.90000, 999, 0, 0.00000, 0.00000
1.00000,   0.000
    19,    20,     0,'1 ',1,1,1, 0.00000E+0, 0.00000E+0,2,'            ',1,   1,1.0000
 7.00000E-4, 1.38000E-2,   100.00
1.06000,   0.000,   0.000,     0.00,     0.00,     0.00, 0,      0, 1.10000, 0.90000, 1.10000, 0.90000, 999, 0, 0.00000, 0.00000
1.00000,   0.000
    19,    33,     0,'1 ',1,1,1, 0.00000E+0, 0.00000E+0,2,'            ',1,   1,1.0000
 7.00000E-4, 1.42000E-2,   100.00
1.07000,   0.000,   0.000,     0.00,     0.00,     0.00, 0,      0, 1.10000, 0.90000, 1.10000, 0.90000, 999, 0, 0.00000, 0.00000
1.00000,   0.000
    20,    34,     0,'1 ',1,1,1, 0.00000E+0, 0.00000E+0,2,'            ',1,   1,1.0000
 9.00000E-4, 1.80000E-2,   100.00
1.00900,   0.000,   0.000,     0.00,     0.00,     0.00, 0,      0, 1.10000, 0.90000, 1.10000, 0.90000, 999, 0, 0.00000, 0.00000
1.00000,   0.000
    22,    35,     0,'1 ',1,1,1, 0.00000E+0, 0.00000E+0,2,'            ',1,   1,1.0000
 0.00000E+0, 1.43000E-2,   100.00
1.02500,   0.000,   0.000,     0.00,     0.00,     0.00, 0,      0, 1.10000, 0.90000, 1.10000, 0.90000, 999, 0, 0.00000, 0.00000
1.00000,   0.000
    23,    36,     0,'1 ',1,1,1, 0.00000E+0, 0.00000E+0,2,'            ',1,   1,1.0000
 5.00000E-4, 2.72000E-2,   100.00
1.00000,   0.000,   0.000,     0.00,     0.00,     0.00, 0,      0, 1.10000, 0.90000, 1.10000, 0.90000, 999, 0, 0.00000, 0.00000
1.00000,   0.000
    25,    37,     0,'1 ',1,1,1, 0.00000E+0, 0.00000E+0,2,'            ',1,   1,1.0000
 6.00000E-4, 2.32000E-2,   100.00
1.02500,   0.000,   0.000,     0.00,     0.00,     0.00, 0,      0, 1.10000, 0.90000, 1.10000, 0.90000, 999, 0, 0.00000, 0.00000
1.00000,   0.000
    29,    38,     0,'1 ',1,1,1, 0.00000E+0, 0.00000E+0,2,'            ',1,   1,1.0000
 8.00000E-4, 1.56000E-2,   100.00
1.02500,   0.000,   0.000,     0.00,     0.00,     0.00, 0,      0, 1.10000, 0.90000, 1.10000, 0.90000, 999, 0, 0.00000, 0.00000
1.00000,   0.000
0 /End of Transformer data, Begin Area interchange data
0 /End of Area interchange data, Begin Two-terminal dc line data
0 /End of Two-terminal dc line data, Begin VSC dc line data
0 /End of VSC dc line data, Begin Impedance correction table data
0 /End of Impedance correction table data, Begin Multi-terminal dc line data
0 /End of Multi-terminal dc line data, Begin Multi-section line data
0 /End of Multi-section line data, Begin Zone data
   1,'ZONE-001    '
0 /End of Zone data, Begin Inter-area transfer data
0 /End of Inter-area transfer data, Begin Owner data
0 /End of Owner data, Begin FACTS device data
0 /End of FACTS device data, Begin Switched shunt data
0 /End of Switched shunt data
